/*--------------------------------*- C++ -*----------------------------------*\
  =========                 |
  \\      /  F ield         | OpenFOAM: The Open Source CFD Toolbox
   \\    /   O peration     | Website:  https://openfoam.org
    \\  /    A nd           | Version:  9
     \\/     M anipulation  |
\*---------------------------------------------------------------------------*/
FoamFile
{
    format      ascii;
    class       dictionary;
    location    "constant";
    object      transportProperties;
}
// * * * * * * * * * * * * * * * * * * * * * * * * * * * * * * * * * * * * * //


mu_a              mu_a [0 0 0 0 0 0 0] 0.3;    // Pa.s

mu_b              mu_b [0 0 0 0 0 0 0] 0.5;    // Pa.s

mu_c              mu_c [0 0 0 0 0 0 0] 1.0;    // Pa.s

rho_a              rho_a [0 0 0 0 0 0 0] 5.76e-2;       // kg/m3

rho_b              rho_b [0 0 0 0 0 0 0] 1.0;           // kg/m3

rho_c              rho_c [0 0 0 0 0 0 0] 0.7;           // kg/m3

prst            prst [0 0 0 0 0 0 0] 1.0;           // []

// Gravity
// g_vector        g_vector [0 0 0 0 0 0 0] (-9.81 0 0);
g_vector        g_vector [0 0 0 0 0 0 0] (0 0 0);

// Corey-Brooks parameters
Sa_min       Sa_min [0 0 0 0 0 0 0] 0.001;
Sb_min       Sb_min [0 0 0 0 0 0 0] 0.001;
Sc_min       Sc_min [0 0 0 0 0 0 0] 0.001;
a_exp        a_exp [0 0 0 0 0 0 0] 2.0;
b_exp        b_exp [0 0 0 0 0 0 0] 2.0;
c_exp        c_exp [0 0 0 0 0 0 0] 2.0;
kra_max      kra_max [0 0 0 0 0 0 0] 1.0;
krb_max      krb_max [0 0 0 0 0 0 0] 1.0;
krc_max      krc_max [0 0 0 0 0 0 0] 1.0;

// STARS Foam parameters
fmmob        fmmob [0 0 0 0 0 0 0] 0.0; // 170.113;
SF           SF [0 0 0 0 0 0 0] 1e-3; // 0.45656;
sfbet        sfbet [0 0 0 0 0 0 0] 504.143;
fmcap        fmcap [0 0 0 0 0 0 0] 8.4e-8;
epcap        epcap [0 0 0 0 0 0 0] 0.0; // 0.52463;
sigma_ba     sigma_ba [0 0 0 0 0 0 0] 0.033; 
fmoil     fmoil [0 0 0 0 0 0 0] 0.823; 
floil     floil [0 0 0 0 0 0 0] 0.295; 
epoil     epoil [0 0 0 0 0 0 0] 0.0; 

// Capillary pressure parameters
epsilon        epsilon [0 0 0 0 0 0 0] 5e-3; // 2e-2;
// ************************************************************************* //
