/*--------------------------------*- C++ -*----------------------------------*\
  =========                 |
  \\      /  F ield         | OpenFOAM: The Open Source CFD Toolbox
   \\    /   O peration     | Website:  https://openfoam.org
    \\  /    A nd           | Version:  9
     \\/     M anipulation  |
\*---------------------------------------------------------------------------*/
FoamFile
{
    format      ascii;
    class       dictionary;
    object      blockMeshDict;
}
// * * * * * * * * * * * * * * * * * * * * * * * * * * * * * * * * * * * * * //

// convertToMeters 0.1;

vertices
(
    (0 0 0)	// 0
    (3 0 0)	// 1
    (6 0 0)	// 2
    (9 0 0)	// 3
    (9 1 0)	// 4
    (6 1 0)	// 5
    (3 1 0)	// 6
    (0 1 0)	// 7
    (0 2 0)	// 8
    (3 2 0)	// 9
    (6 2 0)	// 10
    (9 2 0)	// 11
    (9 3 0)	// 12
    (6 3 0)	// 13
    (3 3 0)	// 14
    (0 3 0)	// 15
    
    (0 0 0.1)	// 16
    (3 0 0.1)	// 17
    (6 0 0.1)	// 18
    (9 0 0.1)	// 19
    (9 1 0.1)	// 20
    (6 1 0.1)	// 21
    (3 1 0.1)	// 22
    (0 1 0.1)	// 23
    (0 2 0.1)	// 24
    (3 2 0.1)	// 25
    (6 2 0.1)	// 26
    (9 2 0.1)	// 27
    (9 3 0.1)	// 28
    (6 3 0.1)	// 29
    (3 3 0.1)	// 30
    (0 3 0.1)	// 31
   
);

blocks
(
    hex (0 1 6 7 16 17 22 23) (74 20 1) simpleGrading (1 1 1)		// 1
    hex (1 2 5 6 17 18 21 22) (74 20 1) simpleGrading (1 1 1)		// 2
    hex (2 3 4 5 18 19 20 21) (74 20 1) simpleGrading (1 1 1)		// 3
    hex (5 4 11 10 21 20 27 26) (74 20 1) simpleGrading (1 1 1)	    // 4
    hex (6 5 10 9 22 21 26 25) (74 20 1) simpleGrading (1 1 1)	    // 5
    hex (7 6 9 8 23 22 25 24) (74 20 1) simpleGrading (1 1 1)		// 6
    hex (8 9 14 15 24 25 30 31) (74 20 1) simpleGrading (1 1 1)	    // 7
    hex (9 10 13 14 25 26 29 30) (74 20 1) simpleGrading (1 1 1)	// 8
    hex (10 11 12 13 26 27 28 29) (74 20 1) simpleGrading (1 1 1)	// 9
);

edges
(
);

boundary
(
    inlet
    {
        type wall;
        faces
        (
            (8 24 23 7)
            (15 31 24 8)
            (7 23 16 0)
        );
    }
    outlet
    {
        type wall;
        faces
        (
            (27 11 4 20)
            (28 12 11 27)
            (20 4 3 19)
        );
    }
    walls
    {
        type wall;
        faces
        (
            
            
            (31 15 14 30)
            (30 14 13 29)
            (29 13 12 28)
            
            
            (18 19 3 2)
            (17 18 2 1)
            (16 17 1 0)
        );
    }
    emptyWalls
    {
        type empty;
        faces
        (
            // frente	
            (15 8 9 14)
            (13 14 9 10)
	        (13 10 11 12)
            (8 7 6 9)
            (10 9 6 5)
            (10 5 4 11)
            (7 0 1 6)
            (6 1 2 5)
            (5 2 3 4)
            // verso
            (16 23 22 17)
            (17 22 21 18)
            (18 21 20 19)
            (23 24 25 22)
            (22 25 26 21)
            (21 26 27 20)
            (24 31 30 25)
            (25 30 29 26)
            (26 29 28 27)
        );
    }
);

mergePatchPairs
(
);

// ************************************************************************* //
