/*--------------------------------*- C++ -*----------------------------------*\
  =========                 |
  \\      /  F ield         | OpenFOAM: The Open Source CFD Toolbox
   \\    /   O peration     | Website:  https://openfoam.org
    \\  /    A nd           | Version:  9
     \\/     M anipulation  |
\*---------------------------------------------------------------------------*/
FoamFile
{
    format      ascii;
    class       dictionary;
    object      blockMeshDict;
}
// * * * * * * * * * * * * * * * * * * * * * * * * * * * * * * * * * * * * * //

convertToMeters 1;

// vertices
// (
//     (-0.03544907701811032 0.03544907701811032 0)        // 0
//     (-0.03544907701811032 0.03544907701811032 0.4)      // 1
//     (0.03544907701811032 0.03544907701811032 0.4)       // 2
//     (0.03544907701811032 0.03544907701811032 0)         // 3
//     (-0.03544907701811032 -0.03544907701811032 0)       // 4
//     (-0.03544907701811032 -0.03544907701811032 0.4)     // 5 
//     (0.03544907701811032 -0.03544907701811032 0.4)      // 6
//     (0.03544907701811032 -0.03544907701811032 0)        // 7
// );

// blocks
// (
//     hex (0 1 2 3 4 5 6 7) (1 1 100) simpleGrading (1 1 1)
// );

vertices
(
    (-0.01772453850905516 0.01772453850905516 0)        // 0
    (-0.01772453850905516 0.01772453850905516 0.4)      // 1
    (-0.01772453850905516 -0.01772453850905516 0.4)     // 2
    (-0.01772453850905516 -0.01772453850905516 0)       // 3
    (0.01772453850905516 0.01772453850905516 0)         // 4
    (0.01772453850905516 0.01772453850905516 0.4)       // 5
    (0.01772453850905516 -0.01772453850905516 0.4)      // 6
    (0.01772453850905516 -0.01772453850905516 0)        // 7
);

blocks
(
    hex (0 1 2 3 4 5 6 7) (100 1 1) simpleGrading (1 1 1)
);


edges
(
);

boundary
(
    inlet
    {
        type patch;
        faces
        (
            // (0 4 7 3)
            (0 3 7 4)
        );
    }
    outlet
    {
        type patch;
        faces
        (
            // (2 6 5 1)
            // (1 5 6 2)
            (1 2 6 5)
        );
    }
    emptyWalls
    {
        type empty;
        faces
        (
            // (0 3 2 1)
            (2 3 0 1)
            // (4 5 6 7)
            (7 6 5 4)
            // (3 7 6 2)
            (2 6 7 3)
            // (1 5 4 0)
            (0 4 5 1)
        );
    }
);

mergePatchPairs
(
);

// ************************************************************************* //
