/*--------------------------------*- C++ -*----------------------------------*\
  =========                 |
  \\      /  F ield         | OpenFOAM: The Open Source CFD Toolbox
   \\    /   O peration     | Website:  https://openfoam.org
    \\  /    A nd           | Version:  9
     \\/     M anipulation  |
\*---------------------------------------------------------------------------*/
FoamFile
{
    format      ascii;
    class       dictionary;
    location    "constant";
    object      transportProperties;
}
// * * * * * * * * * * * * * * * * * * * * * * * * * * * * * * * * * * * * * //

// a: oil
// b: water

mu_a              mu_a [0 0 0 0 0 0 0] 1.47e-13;    // Pa.s

mu_b              mu_b [0 0 0 0 0 0 0] 2.94e-14;    // Pa.s

rho_a              rho_a [0 0 0 0 0 0 0] 0.7;       // kg/m3

rho_b              rho_b [0 0 0 0 0 0 0] 1.0;       // kg/m3

prst            prst [0 0 0 0 0 0 0] 0.25;           // []

// Gravity
// g_vector        g_vector [0 0 0 0 0 0 0] (-9.81 0 0);
g_vector        g_vector [0 0 0 0 0 0 0] (0 0 0);

// Corey-Brooks parameters
Sa_min       Sa_min [0 0 0 0 0 0 0] 0.0;
Sb_min       Sb_min [0 0 0 0 0 0 0] 0.0;
a_exp        a_exp [0 0 0 0 0 0 0] 2.0;
b_exp        b_exp [0 0 0 0 0 0 0] 2.0;
kra_max      kra_max [0 0 0 0 0 0 0] 1.0;
krb_max      krb_max [0 0 0 0 0 0 0] 1.0;

// STARS Foam parameters
fmmob        fmmob [0 0 0 0 0 0 0] 0.0; // 170.113;
SF           SF [0 0 0 0 0 0 0] 0.45656;
sfbet        sfbet [0 0 0 0 0 0 0] 504.143;
fmcap        fmcap [0 0 0 0 0 0 0] 8.4e-8;
epcap        epcap [0 0 0 0 0 0 0] 0.0; // 0.52463;
sigma_ba     sigma_ba [0 0 0 0 0 0 0] 0.033; 

// ************************************************************************* //
