/*--------------------------------*- C++ -*----------------------------------*\
  =========                 |
  \\      /  F ield         | OpenFOAM: The Open Source CFD Toolbox
   \\    /   O peration     | Website:  https://openfoam.org
    \\  /    A nd           | Version:  9
     \\/     M anipulation  |
\*---------------------------------------------------------------------------*/
FoamFile
{
    format      ascii;
    class       dictionary;
    location    "constant";
    object      transportProperties;
}
// * * * * * * * * * * * * * * * * * * * * * * * * * * * * * * * * * * * * * //

// a: oil
// b: water

mu_a              mu_a [0 0 0 0 0 0 0] 1.76e-5;    // Pa.s

mu_b              mu_b [0 0 0 0 0 0 0] 1e-3;       // Pa.s

rho_a              rho_a [0 0 0 0 0 0 0] 1e0;      // kg/m3

rho_b              rho_b [0 0 0 0 0 0 0] 1e3;      // kg/m3

prst            prst [0 0 0 0 0 0 0] 0.5;          // [-]

// Gravity
g_vector        g_vector [0 0 0 0 0 0 0] (-9.81 0 0);

// Corey-Brooks parameters
Sa_min       Sa_min [0 0 0 0 0 0 0] 1e-3;
Sb_min       Sb_min [0 0 0 0 0 0 0] 1e-3;
a_exp        a_exp [0 0 0 0 0 0 0] 2.0;
b_exp        b_exp [0 0 0 0 0 0 0] 2.0;
kra_max      kra_max [0 0 0 0 0 0 0] 1.0;
krb_max      krb_max [0 0 0 0 0 0 0] 1.0;

// Sa_min       Sa_min [0 0 0 0 0 0 0] 0.1;
// Sb_min       Sb_min [0 0 0 0 0 0 0] 0.15;
// a_exp        a_exp [0 0 0 0 0 0 0] 8.0;
// b_exp        b_exp [0 0 0 0 0 0 0] 3.0;
// kra_max      kra_max [0 0 0 0 0 0 0] 1.0;
// krb_max      krb_max [0 0 0 0 0 0 0] 0.5;

// STARS Foam parameters
fmmob        fmmob [0 0 0 0 0 0 0] 0.0;
SF           SF [0 0 0 0 0 0 0] 1.0;
sfbet        sfbet [0 0 0 0 0 0 0] 1.0;
fmcap        fmcap [0 0 0 0 0 0 0] 1.0;
epcap        epcap [0 0 0 0 0 0 0] 0.0; 
sigma_ba     sigma_ba [0 0 0 0 0 0 0] 1.0; 

// ************************************************************************* //
