/*--------------------------------*- C++ -*----------------------------------*\
| =========                 |                                                 |
| \\      /  F ield         | OpenFOAM: The Open Source CFD Toolbox           |
|  \\    /   O peration     | Version:  v2012                                 |
|   \\  /    A nd           | Website:  www.openfoam.com                      |
|    \\/     M anipulation  |                                                 |
\*---------------------------------------------------------------------------*/
FoamFile
{
    version     2.0;
    format      ascii;
    class       dictionary;
    object      blockMeshDict;
}
// * * * * * * * * * * * * * * * * * * * * * * * * * * * * * * * * * * * * * //

scale   1;

a 0.02;		// radius
rb 0.01;
h 0.4;		// height
gradc 6;
gradd 5;
gradz 100;

mrb #calc "-1*$rb";
rbm #calc "0.707106*$rb";
mrbm #calc "-1*$rbm";

ma #calc "-1*$a";
am #calc "0.707106*$a";
mam #calc "-1*$am";

al #calc "0.9238795*$a";
be #calc "0.3826834*$a";
mal #calc "-1*$al";
mbe #calc "-1*$be";


vertices
(
	($rb 0 0) //0
	($rbm $rbm 0) //1	
	(0 $rb 0) //2
	($mrbm $rbm 0) //3
	($mrb 0 0) //4
	($mrbm $mrbm 0) //5	
	(0 $mrb 0) //6
	($rbm $mrbm 0) //7
	
	($a 0 0) //8
	($am $am 0) //9	
	(0 $a 0) //10
	($mam $am 0) //11
	($ma 0 0) //12
	($mam $mam 0) //13	
	(0 $ma 0) //14
	($am $mam 0) //15
	
	($rb 0 $h) //16
	($rbm $rbm $h) //17	
	(0 $rb $h) //18
	($mrbm $rbm $h) //19
	($mrb 0 $h) //20
	($mrbm $mrbm $h) //21	
	(0 $mrb $h) //22
	($rbm $mrbm $h) //23
	
	($a 0 $h) //24
	($am $am $h) //25	
	(0 $a $h) //26
	($mam $am $h) //27
	($ma 0 $h) //28
	($mam $mam $h) //29	
	(0 $ma $h) //30
	($am $mam $h) //31
	
	(0 0 0) //centro inlet 32
	(0 0 $h) //centro outlet 33

);

blocks
(
	hex (32 0 1 2 33 16 17 18) ($gradc $gradc $gradz) simpleGrading (1 1 1) //0
	hex (32 2 3 4 33 18 19 20) ($gradc $gradc $gradz) simpleGrading (1 1 1) //1
	hex (32 4 5 6 33 20 21 22) ($gradc $gradc $gradz) simpleGrading (1 1 1) //2
	hex (32 6 7 0 33 22 23 16) ($gradc $gradc $gradz) simpleGrading (1 1 1) //3
    
	hex (0 8 9 1 16 24 25 17) ($gradd $gradc $gradz) simpleGrading (1 1 1) //4
	hex (1 9 10 2 17 25 26 18) ($gradd $gradc $gradz) simpleGrading (1 1 1) //5
	hex (2 10 11 3 18 26 27 19) ($gradd $gradc $gradz) simpleGrading (1 1 1) //6
	hex (3 11 12 4 19 27 28 20) ($gradd $gradc $gradz) simpleGrading (1 1 1) //7
	hex (4 12 13 5 20 28 29 21) ($gradd $gradc $gradz) simpleGrading (1 1 1) //8
	hex (5 13 14 6 21 29 30 22) ($gradd $gradc $gradz) simpleGrading (1 1 1) //9
	hex (6 14 15 7 22 30 31 23) ($gradd $gradc $gradz) simpleGrading (1 1 1) //10
	hex (7 15 8 0 23 31 24 16) ($gradd $gradc $gradz) simpleGrading (1 1 1) //11
    
);

edges
(
	arc 8 9 ($al $be 0)
	arc 9 10 ($be $al 0)
	arc 10 11 ($mbe $al 0)
	arc 11 12 ($mal $be 0)
	arc 12 13 ($mal $mbe 0) //p
	arc 13 14 ($mbe $mal 0)
	arc 14 15 ($be $mal 0)
	arc 15 8 ($al $mbe 0)
	
	arc 24 25 ($al $be $h)
	arc 25 26 ($be $al $h)
	arc 26 27 ($mbe $al $h)
	arc 27 28 ($mal $be $h)
	arc 28 29 ($mal $mbe $h) //p
	arc 29 30 ($mbe $mal $h)
	arc 30 31 ($be $mal $h)
	arc 31 24 ($al $mbe $h)
	
);

patches
(
    patch inlet
    (
		(32 2 1 0)
		(32 4 3 2)
		(32 6 5 4)
		(32 0 7 6)
		(0 1 9 8)
		(1 2 10 9)
		(2 3 11 10)
		(3 4 12 11)
		(4 5 13 12)
		(5 6 14 13)
		(6 7 15 14)
		(7 0 8 15)
    )
    
    patch outlet
    (
		(33 16 17 18)
		(33 18 19 20)
		(33 20 21 22)
		(33 22 23 16)
		
		(16 24 25 17)
		(17 25 26 18)
		(18 26 27 19)
		(19 27 28 20)
		(20 28 29 21)
		(21 29 30 22)
		(22 30 31 23)
		(23 31 24 16)
		
    )
    
    wall walls
    (
		(8 9 25 24)
		(9 10 26 25)
		(10 11 27 26)
		(11 12 28 27)
		(12 13 29 28)
		(13 14 30 29)
		(14 15 31 30)
		(15 8 24 31)
	)

);

mergePatchPairs
(
);

// ************************************************************************* //
