/*--------------------------------*- C++ -*----------------------------------*\
  =========                 |
  \\      /  F ield         | OpenFOAM: The Open Source CFD Toolbox
   \\    /   O peration     | Website:  https://openfoam.org
    \\  /    A nd           | Version:  9
     \\/     M anipulation  |
\*---------------------------------------------------------------------------*/
FoamFile
{
    format      ascii;
    class       dictionary;
    location    "constant";
    object      transportProperties;
}
// * * * * * * * * * * * * * * * * * * * * * * * * * * * * * * * * * * * * * //

mu_a          mu_a [0 0 0 0 0 0 0] 2.07e-5;     // Pa.s
mu_b          mu_b [0 0 0 0 0 0 0] 7.00e-4;     // Pa.s
mu_c          mu_c [0 0 0 0 0 0 0] 5.00e-3;     // Pa.s

rho_a         rho_a [0 0 0 0 0 0 0] 1000.0;     // kg/m3
rho_b         rho_b [0 0 0 0 0 0 0] 1000.0;     // kg/m3
rho_c         rho_c [0 0 0 0 0 0 0] 1000.0;     // kg/m3

prst          prst [0 0 0 0 0 0 0] 0.3;         // []

// Corey-Brooks parameters
Sa_min        Sa_min  [0 0 0 0 0 0 0] 0.2;
Sb_min        Sb_min  [0 0 0 0 0 0 0] 0.2;
Sc_min        Sc_min  [0 0 0 0 0 0 0] 0.1;
a_exp         a_exp   [0 0 0 0 0 0 0] 1.3;
b_exp         b_exp   [0 0 0 0 0 0 0] 4.2;
c_exp         c_exp   [0 0 0 0 0 0 0] 2.0;
kra_max       kra_max [0 0 0 0 0 0 0] 0.94;
krb_max       krb_max [0 0 0 0 0 0 0] 0.20;
krc_max       krc_max [0 0 0 0 0 0 0] 0.50;

// STARS Foam parameters
fmmob       fmmob [0 0 0 0 0 0 0] 0.0; // 54000.0;
SF          SF  	[0 0 0 0 0 0 0] 0.316;
sfbet       sfbet [0 0 0 0 0 0 0] 6000.0;
fmcap       fmcap [0 0 0 0 0 0 0] 0.0;
epcap       epcap [0 0 0 0 0 0 0] 0.0;
sigma_ba    sigma_ba [0 0 0 0 0 0 0] 0.033;
fmoil       fmoil [0 0 0 0 0 0 0] 1.0; 
floil       floil [0 0 0 0 0 0 0] 0.1; 
epoil       epoil [0 0 0 0 0 0 0] 4.0; 

// ************************************************************************* //
