/*--------------------------------*- C++ -*----------------------------------*\
  =========                 |
  \\      /  F ield         | OpenFOAM: The Open Source CFD Toolbox
   \\    /   O peration     | Website:  https://openfoam.org
    \\  /    A nd           | Version:  9
     \\/     M anipulation  |
\*---------------------------------------------------------------------------*/
FoamFile
{
    format      ascii;
    class       dictionary;
    location    "constant";
    object      transportProperties;
}
// * * * * * * * * * * * * * * * * * * * * * * * * * * * * * * * * * * * * * //

// a: gas
// b: water

mu_a              mu_a [0 0 0 0 0 0 0] 2.0e-5;    // Pa.s

mu_b              mu_b [0 0 0 0 0 0 0] 1.0e-3;    // Pa.s

rho_a              rho_a [0 0 0 0 0 0 0] 1.0;       // kg/m3

rho_b              rho_b [0 0 0 0 0 0 0] 1.0e3;     // kg/m3

prst            prst [0 0 0 0 0 0 0] 0.25;          // []

// Gravity
g_vector        g_vector [0 0 0 0 0 0 0] (0 0 0);

// Corey-Brooks parameters
Sa_min       Sa_min [0 0 0 0 0 0 0] 0.18;
Sb_min       Sb_min [0 0 0 0 0 0 0] 0.2;
a_exp        a_exp [0 0 0 0 0 0 0] 1.3;
b_exp        b_exp [0 0 0 0 0 0 0] 4.2;
kra_max      kra_max [0 0 0 0 0 0 0] 0.94;
krb_max      krb_max [0 0 0 0 0 0 0] 0.2;

// STARS Foam parameters
fmmob        fmmob [0 0 0 0 0 0 0] 0; 
SF           SF [0 0 0 0 0 0 0] 0.437;
sfbet        sfbet [0 0 0 0 0 0 0] 359.33;
fmcap        fmcap [0 0 0 0 0 0 0] 1.0; 
epcap        epcap [0 0 0 0 0 0 0] 0.0; 
sigma_ba        sigma_ba [0 0 0 0 0 0 0] 1.0;

// Ashoori Foam parameters
Kc        Kc [0 0 0 0 0 0 0] 0.01; // 0.0, 0.01, 1.0, 200.0 
A         A [0 0 0 0 0 0 0] 400;
Cmrf      Cmrf [0 0 0 0 0 0 0] 18500;
Sw_ast    Sw_ast [0 0 0 0 0 0 0] 0.37;
nMAX      nMAX [0 0 0 0 0 0 0] 8.0e13;
// ************************************************************************* //
