/*--------------------------------*- C++ -*----------------------------------*\
  =========                 |
  \\      /  F ield         | OpenFOAM: The Open Source CFD Toolbox
   \\    /   O peration     | Website:  https://openfoam.org
    \\  /    A nd           | Version:  9
     \\/     M anipulation  |
\*---------------------------------------------------------------------------*/
FoamFile
{
    format      ascii;
    class       dictionary;
    object      blockMeshDict;
}
// * * * * * * * * * * * * * * * * * * * * * * * * * * * * * * * * * * * * * //

// convertToMeters 1;

vertices
(
    (0 0 0)                 // 0
    (360 0 0)               // 1
    (360 100 0)             // 2
    (0 100 0)               // 3
    (0 0 30)                // 4
    (360 0 30)              // 5 
    (360 100 30)            // 6
    (0 100 30)              // 7
);

blocks
(
    hex (0 1 2 3 4 5 6 7) (110 30 10) simpleGrading (1 1 1)
);

edges
(
);

boundary
(
    walls
    {
        type wall;
        faces
        (   
            (1 5 6 2)
            (0 3 7 4)
            (7 3 2 6)
            (0 4 5 1)
            (2 3 0 1) //
            (5 4 7 6) //
        );
    }
    // emptyWalls
    // {
    //     type empty;
    //     faces
    //     (
    //         (2 3 0 1)
    //         (5 4 7 6)
    //     );
    // }
);

mergePatchPairs
(
);

// ************************************************************************* //
