/*--------------------------------*- C++ -*----------------------------------*\
  =========                 |
  \\      /  F ield         | OpenFOAM: The Open Source CFD Toolbox
   \\    /   O peration     | Website:  https://openfoam.org
    \\  /    A nd           | Version:  9
     \\/     M anipulation  |
\*---------------------------------------------------------------------------*/
FoamFile
{
    format      ascii;
    class       dictionary;
    location    "system";
    object      fvSolution;
}
// * * * * * * * * * * * * * * * * * * * * * * * * * * * * * * * * * * * * * //

solvers
{
    p
    {
        solver          PCG;
        preconditioner  DIC;
        tolerance       1e-6;
        relTol          0.0;
    }

    Sa
    {
        solver          smoothSolver;
        smoother        GaussSeidel;
        nSweeps         2;
        tolerance       1e-8;
        relTol          0.0;

        // solver          PBiCGStab;
        // preconditioner  DIC;
        // relTol          0.1;
        // tolerance       1e-8;
    }

    Sb
    {
        solver          smoothSolver;
        smoother        GaussSeidel;
        nSweeps         2;
        tolerance       1e-8;
        relTol          0.0;

        // solver          PBiCGStab;
        // preconditioner  DIC;
        // relTol          0.1;
        // tolerance       1e-8;
    }
}

SIMPLE
{
    nNonOrthogonalCorrectors 1;
    consistent      yes;

    // residualControl
    // {
    //     p               1e-2;
    //     U               1e-3;
    //     "(k|epsilon|omega|f|v2)" 1e-3;
    // }
}


// ************************************************************************* //
