/*--------------------------------*- C++ -*----------------------------------*\
  =========                 |
  \\      /  F ield         | OpenFOAM: The Open Source CFD Toolbox
   \\    /   O peration     | Website:  https://openfoam.org
    \\  /    A nd           | Version:  9
     \\/     M anipulation  |
\*---------------------------------------------------------------------------*/
FoamFile
{
    format      ascii;
    class       dictionary;
    object      blockMeshDict;
}
// * * * * * * * * * * * * * * * * * * * * * * * * * * * * * * * * * * * * * //

// convertToMeters 1;

vertices
(
    (0 0 0)             // 0
    (3.67 0 0)          // 1
    (3.67 1 0)          // 2
    (0 1 0)             // 3
    (0 0 0.01)          // 4
    (3.67 0 0.01)       // 5 
    (3.67 1 0.01)       // 6
    (0 1 0.01)          // 7
);

blocks
(
    hex (0 1 2 3 4 5 6 7) (220 60 1) simpleGrading (1 1 1)
);

edges
(
);

boundary
(
    inlet
    {
        type patch;
        faces
        (
            // (0 4 7 3)
            (0 3 7 4)
        );
    }
    outlet
    {
        type patch;
        faces
        (
            // (2 6 5 1)
            (1 5 6 2)
        );
    }
    walls
    {
        type wall;
        faces
        (
            (7 3 2 6)
            (0 4 5 1)
        );
    }
    emptyWalls
    {
        type empty;
        faces
        (
            (2 3 0 1)
            (5 4 7 6)
        );
    }
);

mergePatchPairs
(
);

// ************************************************************************* //
