/*--------------------------------*- C++ -*----------------------------------*\
  =========                 |
  \\      /  F ield         | OpenFOAM: The Open Source CFD Toolbox
   \\    /   O peration     | Website:  https://openfoam.org
    \\  /    A nd           | Version:  9
     \\/     M anipulation  |
\*---------------------------------------------------------------------------*/
FoamFile
{
    format      ascii;
    class       dictionary;
    location    "constant";
    object      transportProperties;
}
// * * * * * * * * * * * * * * * * * * * * * * * * * * * * * * * * * * * * * //

mu_a              mu_a [0 0 0 0 0 0 0] 2.0e-5;       // Pa.s  Gas

mu_b              mu_b [0 0 0 0 0 0 0] 0.7e-3;       // Pa.s  Water 

mu_c              mu_c [0 0 0 0 0 0 0] 5.0e-3; // 9.0e-2;       // 5.0e-3;       // Pa.s  Oil

rho_a              rho_a [0 0 0 0 0 0 0] 1000.0;    // kg/m3

rho_b              rho_b [0 0 0 0 0 0 0] 1000.0;    // kg/m3

rho_c              rho_c [0 0 0 0 0 0 0] 1000.0;    // kg/m3

prst            prst [0 0 0 0 0 0 0] 0.22;          // []

// Corey-Brooks parameters
Sa_min       Sa_min [0 0 0 0 0 0 0] 0.013;
Sb_min       Sb_min [0 0 0 0 0 0 0] 0.197;
Sc_min       Sc_min [0 0 0 0 0 0 0] 0.103;
a_exp        a_exp [0 0 0 0 0 0 0] {{a_exp}}; // 1.62;
b_exp        b_exp [0 0 0 0 0 0 0] {{b_exp}}; // 3.86;
c_exp        c_exp [0 0 0 0 0 0 0] {{c_exp}}; // 2.54;
kra_max      kra_max [0 0 0 0 0 0 0] {{kra_max}}; // 0.83;
krb_max      krb_max [0 0 0 0 0 0 0] {{krb_max}}; // 0.247;
krc_max      krc_max [0 0 0 0 0 0 0] {{krc_max}}; // 0.584;

// STARS Foam parameters
fmmob        fmmob [0 0 0 0 0 0 0] 50000.0;
SF           SF [0 0 0 0 0 0 0] 0.215;
sfbet        sfbet [0 0 0 0 0 0 0] 19950.0;
fmcap        fmcap [0 0 0 0 0 0 0] 1.0e-4;
epcap        epcap [0 0 0 0 0 0 0] 1.321;
sigma_ba     sigma_ba [0 0 0 0 0 0 0] 0.033; 
fmoil     fmoil [0 0 0 0 0 0 0] 0.823; 
floil     floil [0 0 0 0 0 0 0] 0.295; 
epoil     epoil [0 0 0 0 0 0 0] 3.827; 

// ************************************************************************* //
