/*--------------------------------*- C++ -*----------------------------------*\
  =========                 |
  \\      /  F ield         | OpenFOAM: The Open Source CFD Toolbox
   \\    /   O peration     | Website:  https://openfoam.org
    \\  /    A nd           | Version:  9
     \\/     M anipulation  |
\*---------------------------------------------------------------------------*/
FoamFile
{
    format      ascii;
    class       dictionary;
    object      topoSetDict;
}

// * * * * * * * * * * * * * * * * * * * * * * * * * * * * * * * * * * * * * //

actions
(
    // box1
    {
        name    box1CellSet;
        type    cellSet;
        action  new;
        source  boxToCell;
        sourceInfo
        {
            box (0 0 -20) (1 1 20);
        }
    }
    {
        name    box1;
        type    cellZoneSet;
        action  new;
        source  setToCellZone;
        sourceInfo
        {
            set box1CellSet;
        }
    }

    // box2
    {
        name    box2CellSet;
        type    cellSet;
        action  new;
        source  boxToCell;
        sourceInfo
        {
            box (99 99 -20) (100 100 20);
        }
    }
    {
        name    box2;
        type    cellZoneSet;
        action  new;
        source  setToCellZone;
        sourceInfo
        {
            set box2CellSet;
        }
    }


);

// ************************************************************************* //
