/*--------------------------------*- C++ -*----------------------------------*\
  =========                 |
  \\      /  F ield         | OpenFOAM: The Open Source CFD Toolbox
   \\    /   O peration     | Website:  https://openfoam.org
    \\  /    A nd           | Version:  9
     \\/     M anipulation  |
\*---------------------------------------------------------------------------*/
FoamFile
{
    format      ascii;
    class       dictionary;
    location    "constant";
    object      transportProperties;
}
// * * * * * * * * * * * * * * * * * * * * * * * * * * * * * * * * * * * * * //

// mu_a              mu_a [0 0 0 0 0 0 0] 1.0e-05;   // Pa.s

// mu_b              mu_b [0 0 0 0 0 0 0] 0.001;     // Pa.s

// rho_a              rho_a [0 0 0 0 0 0 0] 1000.0;    // kg/m3

// rho_b              rho_b [0 0 0 0 0 0 0] 1000.0;    // kg/m3

// prst            prst [0 0 0 0 0 0 0] 0.25;        // []

mu_a              mu_a [0 0 0 0 0 0 0] 2.0e-5;   // Pa.s

mu_b              mu_b [0 0 0 0 0 0 0] 1.05e-3;     // Pa.s

rho_a              rho_a [0 0 0 0 0 0 0] 1.0; // 500.0;    // kg/m3

rho_b              rho_b [0 0 0 0 0 0 0] 1000.0;    // kg/m3

prst            prst [0 0 0 0 0 0 0] 0.1593;        // []

// Gravity
g_vector        g_vector [0 0 0 0 0 0 0] (0 -9.81 0);
// g_vector        g_vector [0 0 0 0 0 0 0] (0 0 0);

// Corey-Brooks parameters
Sa_min       Sa_min [0 0 0 0 0 0 0] 0.293;
Sb_min       Sb_min [0 0 0 0 0 0 0] 0.4;
a_exp        a_exp [0 0 0 0 0 0 0] 0.96;
b_exp        b_exp [0 0 0 0 0 0 0] 2.98;
kra_max      kra_max [0 0 0 0 0 0 0] 0.04;
krb_max      krb_max [0 0 0 0 0 0 0] 0.302;

// STARS Foam parameters
fmmob        fmmob [0 0 0 0 0 0 0] 10.0; // 170.113;
SF           SF [0 0 0 0 0 0 0] 0.45656;
sfbet        sfbet [0 0 0 0 0 0 0] 504.143;
fmcap        fmcap [0 0 0 0 0 0 0] 8.4e-8;
epcap        epcap [0 0 0 0 0 0 0] 0.0; // 0.52463;
sigma_ba     sigma_ba [0 0 0 0 0 0 0] 0.033; 

// ************************************************************************* //
