/*--------------------------------*- C++ -*----------------------------------*\
  =========                 |
  \\      /  F ield         | OpenFOAM: The Open Source CFD Toolbox
   \\    /   O peration     | Website:  https://openfoam.org
    \\  /    A nd           | Version:  9
     \\/     M anipulation  |
\*---------------------------------------------------------------------------*/
FoamFile
{
    version     2.0;
    format      ascii;
    class       volScalarField;
    location    "0";
    object      p;
}
// * * * * * * * * * * * * * * * * * * * * * * * * * * * * * * * * * * * * * //

dimensions      [0 0 0 0 0 0 0];    // Pa

internalField   uniform 0;

boundaryField
{
    inlet
    {
        type               darcyGradPressure;
        value              uniform 0.0;
    }
    outlet
    {
        type            fixedValue;
        value           uniform 0.0;
    }
    emptyWalls
    {
        type            empty;
    }
}

// ************************************************************************* //
