/*--------------------------------*- C++ -*----------------------------------*\
  =========                 |
  \\      /  F ield         | OpenFOAM: The Open Source CFD Toolbox
   \\    /   O peration     | Website:  https://openfoam.org
    \\  /    A nd           | Version:  9
     \\/     M anipulation  |
\*---------------------------------------------------------------------------*/
FoamFile
{
    format      ascii;
    class       dictionary;
    location    "constant";
    object      transportProperties;
}
// * * * * * * * * * * * * * * * * * * * * * * * * * * * * * * * * * * * * * //

mu_a              mu_a [0 0 0 0 0 0 0] 2.112e-5;      // Pa.s

mu_b              mu_b [0 0 0 0 0 0 0] 5.0e-4;     // Pa.s

rho_a              rho_a [0 0 0 0 0 0 0] 1000.0;    // kg/m3

rho_b              rho_b [0 0 0 0 0 0 0] 1000.0;    // kg/m3

prst            prst [0 0 0 0 0 0 0] 0.25;        // []


// Corey-Brooks parameters
Sa_min       Sa_min [0 0 0 0 0 0 0] 0.293;
Sb_min       Sb_min [0 0 0 0 0 0 0] 0.4;
a_exp        a_exp [0 0 0 0 0 0 0] 0.96;
b_exp        b_exp [0 0 0 0 0 0 0] 2.98;
kra_max      kra_max [0 0 0 0 0 0 0] 0.04;
krb_max      krb_max [0 0 0 0 0 0 0] 0.302;

// STARS Foam parameters
fmmob        fmmob [0 0 0 0 0 0 0] 269.342055;
SF           SF [0 0 0 0 0 0 0] 0.43766393;
sfbet        sfbet [0 0 0 0 0 0 0] 787.457944;
fmcap        fmcap [0 0 0 0 0 0 0] 1.0;
epcap        epcap [0 0 0 0 0 0 0] 0.0;
sigma_ba     sigma_ba [0 0 0 0 0 0 0] 1.0; 

// ************************************************************************* //
