/*--------------------------------*- C++ -*----------------------------------*\
  =========                 |
  \\      /  F ield         | OpenFOAM: The Open Source CFD Toolbox
   \\    /   O peration     | Website:  https://openfoam.org
    \\  /    A nd           | Version:  9
     \\/     M anipulation  |
\*---------------------------------------------------------------------------*/
FoamFile
{
    format      ascii;
    class       dictionary;
    location    "constant";
    object      transportProperties;
}
// * * * * * * * * * * * * * * * * * * * * * * * * * * * * * * * * * * * * * //

// mu_a              mu_a [0 0 0 0 0 0 0] 1.0e-5;   // Pa.s

// mu_b              mu_b [0 0 0 0 0 0 0] 1.0e-3;     // Pa.s

// rho_a              rho_a [0 0 0 0 0 0 0] 1000.0;    // kg/m3

// rho_b              rho_b [0 0 0 0 0 0 0] 1000.0;    // kg/m3

// prst            prst [0 0 0 0 0 0 0] 0.25;        // []


// // Corey-Brooks parameters
// Sa_min       Sa_min [0 0 0 0 0 0 0] 0.1;
// Sb_min       Sb_min [0 0 0 0 0 0 0] 0.15;
// a_exp        a_exp [0 0 0 0 0 0 0] 8.0;
// b_exp        b_exp [0 0 0 0 0 0 0] 3.0;
// kra_max      kra_max [0 0 0 0 0 0 0] 0.5;
// krb_max      krb_max [0 0 0 0 0 0 0] 1.0;

mu_a              mu_a [0 0 0 0 0 0 0] 2.0e-5;   // Pa.s

mu_b              mu_b [0 0 0 0 0 0 0] 1.05e-3;     // Pa.s

rho_a              rho_a [0 0 0 0 0 0 0] 1000.0;    // kg/m3

rho_b              rho_b [0 0 0 0 0 0 0] 1000.0;    // kg/m3

prst            prst [0 0 0 0 0 0 0] 0.1593;        // []


// Corey-Brooks parameters
Sa_min       Sa_min [0 0 0 0 0 0 0] 0.293;
Sb_min       Sb_min [0 0 0 0 0 0 0] 0.4;
a_exp        a_exp [0 0 0 0 0 0 0] 0.96;
b_exp        b_exp [0 0 0 0 0 0 0] 2.98;
kra_max      kra_max [0 0 0 0 0 0 0] 0.04;
krb_max      krb_max [0 0 0 0 0 0 0] 0.302;

// STARS Foam parameters
fmmob        fmmob [0 0 0 0 0 0 0] 688.743;
SF           SF [0 0 0 0 0 0 0] 0.45783;
sfbet        sfbet [0 0 0 0 0 0 0] 144.383;
fmcap        fmcap [0 0 0 0 0 0 0] 8.4e-8;
epcap        epcap [0 0 0 0 0 0 0] 0.52463;
sigma_ba     sigma_ba [0 0 0 0 0 0 0] 0.033; 

// ************************************************************************* //
