/*--------------------------------*- C++ -*----------------------------------*\
  =========                 |
  \\      /  F ield         | OpenFOAM: The Open Source CFD Toolbox
   \\    /   O peration     | Website:  https://openfoam.org
    \\  /    A nd           | Version:  9
     \\/     M anipulation  |
\*---------------------------------------------------------------------------*/
FoamFile
{
    format      ascii;
    class       dictionary;
    location    "system";
    object      controlDict;
}
// * * * * * * * * * * * * * * * * * * * * * * * * * * * * * * * * * * * * * //

application     impesFoam;

startFrom       startTime;

startTime       0;      // Last state of the baseline simulation

stopAt          endTime;

endTime         40000;

deltaT          {{deltaT}};

writeControl    runTime;

writeInterval   500;

purgeWrite      0;

writeFormat     ascii;

writePrecision  6;

writeCompression off;

timeFormat      general;

timePrecision   6;

runTimeModifiable true;

libs
(
    "libmyPorousMediumBCs.so"
);

// ************************************************************************* //


DebugSwitches
{
    dimensionSet 0;
}
